          17
 
 C    1.2049777911    0.6956942520    0.0000000000
 C    1.2049777911   -0.6956942520    0.0000000000
 C    0.0000000000   -1.3913885041    0.0000000000
 C   -1.2049777911   -0.6956942520    0.0000000000
 C   -1.2049777911    0.6956942520    0.0000000000
 C    0.0000000000    1.3913885041    0.0000000000
 H    2.1430161769    1.2372709666    0.0000000000
 H    2.1430161769   -1.2372709666    0.0000000000
 H    0.0000000000   -2.4745419332    0.0000000000
 H   -2.1430161769   -1.2372709666    0.0000000000
 H   -2.1430161769    1.2372709666    0.0000000000
 H    0.0000000000    2.4745419332    0.0000000000
X     3.8357000443   -0.0028197160   -2.6248251463
X     3.8357000443   -0.0028197160    2.6248251463
X     0.0559518336   -0.0028197160   -2.6248251463
X     0.0559518336   -0.0028197160    2.6248251463
Be     3.8508640335   -0.0028197160   -3.7042407393
